<?xml version="1.0" encoding="UTF-8"?>

<!-- generated on 2025-06-29 19:58:21 by Eclipse SUMO netedit Version 1.23.1
<neteditConfiguration xmlns:xsi="http://www.w3.org/2001/XMLSchema-instance" xsi:noNamespaceSchemaLocation="http://sumo.dlr.de/xsd/neteditConfiguration.xsd">

    <input>
        <route-files value="E:\SUMO_FILES\test_cases\scenarios_7.rou.xml"/>
        <sumo-net-file value="E:\SUMO_FILES\maps\lianyg_yanc.net.xml"/>
    </input>

    <output>
        <output-file value="E:\SUMO_FILES\maps\lianyg_yanc.net.xml"/>
    </output>

    <processing>
        <geometry.min-radius.fix.railways value="false"/>
        <geometry.avoid-overlap value="false"/>
        <geometry.max-grade.fix value="false"/>
        <offset.disable-normalization value="true"/>
        <lefthand value="0"/>
    </processing>

    <junctions>
        <no-turnarounds value="true"/>
        <junctions.corner-detail value="5"/>
        <junctions.limit-turn-speed value="5.50"/>
        <rectangular-lane-cut value="0"/>
    </junctions>

    <pedestrian>
        <walkingareas value="0"/>
    </pedestrian>

</neteditConfiguration>
-->

<net version="1.20" junctionCornerDetail="5" limitTurnSpeed="5.50" avoidOverlap="0" xmlns:xsi="http://www.w3.org/2001/XMLSchema-instance" xsi:noNamespaceSchemaLocation="http://sumo.dlr.de/xsd/net_file.xsd">

    <location netOffset="-694707.26,-3691070.66" convBoundary="-57.44,0.00,112597.85,130698.26" origBoundary="119.120681,33.316430,120.301362,34.518912" projParameter="+proj=utm +zone=50 +ellps=WGS84 +datum=WGS84 +units=m +no_defs"/>

    <type id="highway.motorway" priority="14" numLanes="2" speed="33.33" allow="private emergency authority army vip passenger hov taxi bus coach delivery truck trailer motorcycle evehicle custom1 custom2" oneway="1">
        <restriction vClass="truck" speed="25.00"/>
        <restriction vClass="trailer" speed="22.22"/>
    </type>
    <type id="highway.motorway_link" priority="9" numLanes="1" speed="11.11" allow="private emergency authority army vip passenger hov taxi bus coach delivery truck trailer motorcycle evehicle custom1 custom2" oneway="1">
        <restriction vClass="private" speed="12.00"/>
        <restriction vClass="truck" speed="11.11"/>
        <restriction vClass="trailer" speed="10.11"/>
    </type>
    <type id="highway.primary" priority="12" numLanes="2" speed="27.78" disallow="tram rail_urban rail rail_electric rail_fast ship" oneway="0">
        <restriction vClass="truck" speed="25.00"/>
        <restriction vClass="trailer" speed="22.22"/>
    </type>
    <type id="highway.residential" priority="3" numLanes="1" speed="13.89" disallow="tram rail_urban rail rail_electric rail_fast ship" oneway="0"/>
    <type id="highway.secondary" priority="11" numLanes="1" speed="27.78" disallow="tram rail_urban rail rail_electric rail_fast ship" oneway="0"/>
    <type id="highway.tertiary" priority="10" numLanes="1" speed="22.22" disallow="tram rail_urban rail rail_electric rail_fast ship" oneway="0"/>
    <type id="highway.trunk" priority="13" numLanes="2" speed="27.78" disallow="pedestrian bicycle tram rail_urban rail rail_electric rail_fast ship" oneway="0"/>
    <type id="highway.trunk_link" priority="8" numLanes="1" speed="22.22" disallow="pedestrian bicycle tram rail_urban rail rail_electric rail_fast ship" oneway="0"/>
    <type id="highway.unclassified" priority="4" numLanes="1" speed="13.89" disallow="tram rail_urban rail rail_electric rail_fast ship" oneway="0"/>

    <edge id=":10137989002_0" function="internal">
        <lane id=":10137989002_0_0" index="0" allow="private emergency authority army vip passenger hov taxi bus coach delivery truck trailer motorcycle evehicle custom1 custom2" speed="22.22" length="3.38" shape="49580.89,96326.44 49581.84,96326.13 49582.49,96325.88 49583.09,96325.56 49583.95,96325.04"/>
    </edge>
    <edge id=":10137989002_1" function="internal">
        <lane id=":10137989002_1_0" index="0" allow="private emergency authority army vip passenger hov taxi bus coach delivery truck trailer motorcycle evehicle custom1 custom2" speed="22.22" length="3.40" shape="49582.74,96329.55 49585.63,96327.77"/>
    </edge>
    <edge id=":10137989003_0" function="internal">
        <lane id=":10137989003_0_0" index="0" allow="private emergency authority army vip passenger hov taxi bus coach delivery truck trailer motorcycle evehicle custom1 custom2" speed="22.22" length="3.28" shape="49597.72,96333.94 49596.90,96334.46 49596.35,96334.84 49595.83,96335.26 49595.11,96335.91"/>
    </edge>
    <edge id=":10137989003_1" function="internal">
        <lane id=":10137989003_1_0" index="0" allow="private emergency authority army vip passenger hov taxi bus coach delivery truck trailer motorcycle evehicle custom1 custom2" speed="22.22" length="3.29" shape="49596.03,96331.22 49593.23,96332.97"/>
    </edge>
    <edge id=":10137989007_0" function="internal">
        <lane id=":10137989007_0_0" index="0" allow="private emergency authority army vip passenger hov taxi bus coach delivery truck trailer motorcycle evehicle custom1 custom2" speed="22.22" length="3.23" shape="49586.71,96397.00 49587.40,96397.66 49587.89,96398.09 49588.42,96398.49 49589.19,96399.05"/>
    </edge>
    <edge id=":10137989007_1" function="internal">
        <lane id=":10137989007_1_0" index="0" disallow="tram rail_urban rail rail_electric rail_fast ship cable_car subway" speed="22.22" length="3.38" shape="49584.65,96399.69 49587.34,96401.66"/>
        <lane id=":10137989007_1_1" index="1" disallow="tram rail_urban rail rail_electric rail_fast ship cable_car subway" speed="22.22" length="3.38" shape="49582.73,96402.25 49585.49,96404.27"/>
    </edge>
    <edge id=":10137989012_0" function="internal">
        <lane id=":10137989012_0_0" index="0" disallow="tram rail_urban rail rail_electric rail_fast ship cable_car subway" speed="13.89" length="14.36" shape="49439.87,96542.78 49427.07,96549.30"/>
    </edge>
    <edge id=":10137989012_1" function="internal">
        <lane id=":10137989012_1_0" index="0" disallow="tram rail_urban rail rail_electric rail_fast ship cable_car subway" speed="8.27" length="3.91" shape="49439.87,96542.78 49436.29,96543.96 49436.15,96543.95"/>
    </edge>
    <edge id=":10137989012_2" function="internal">
        <lane id=":10137989012_2_0" index="0" disallow="tram rail_urban rail rail_electric rail_fast ship cable_car subway" speed="3.65" length="1.44" shape="49439.87,96542.78 49438.44,96542.60"/>
    </edge>
    <edge id=":10137989012_9" function="internal">
        <lane id=":10137989012_9_0" index="0" disallow="tram rail_urban rail rail_electric rail_fast ship cable_car subway" speed="8.27" length="10.38" shape="49436.15,96543.95 49433.07,96543.71 49430.21,96542.04 49427.72,96538.95"/>
    </edge>
    <edge id=":10137989012_10" function="internal">
        <lane id=":10137989012_10_0" index="0" disallow="tram rail_urban rail rail_electric rail_fast ship cable_car subway" speed="3.65" length="3.23" shape="49438.44,96542.60 49437.72,96542.07 49437.72,96541.17 49438.43,96539.92"/>
    </edge>
    <edge id=":10137989012_3" function="internal">
        <lane id=":10137989012_3_0" index="0" disallow="tram rail_urban rail rail_electric rail_fast ship cable_car subway" speed="6.82" length="9.42" shape="49430.45,96537.28 49432.11,96539.36 49433.99,96540.49 49436.10,96540.68 49438.43,96539.92"/>
    </edge>
    <edge id=":10137989012_4" function="internal">
        <lane id=":10137989012_4_0" index="0" disallow="tram rail_urban rail rail_electric rail_fast ship cable_car subway" speed="7.88" length="14.47" shape="49430.45,96537.28 49432.02,96540.97 49431.98,96544.20 49430.33,96546.98 49427.07,96549.30"/>
    </edge>
    <edge id=":10137989012_5" function="internal">
        <lane id=":10137989012_5_0" index="0" disallow="tram rail_urban rail rail_electric rail_fast ship cable_car subway" speed="3.65" length="4.67" shape="49430.45,96537.28 49430.39,96538.73 49429.91,96539.48 49429.02,96539.56 49427.72,96538.95"/>
    </edge>
    <edge id=":10137989012_6" function="internal">
        <lane id=":10137989012_6_0" index="0" disallow="tram rail_urban rail rail_electric rail_fast ship cable_car subway" speed="6.36" length="9.04" shape="49425.60,96546.45 49427.64,96545.00 49428.67,96543.27 49428.70,96541.25 49427.72,96538.95"/>
    </edge>
    <edge id=":10137989012_7" function="internal">
        <lane id=":10137989012_7_0" index="0" disallow="tram rail_urban rail rail_electric rail_fast ship cable_car subway" speed="13.89" length="14.40" shape="49425.60,96546.45 49438.43,96539.92"/>
    </edge>
    <edge id=":10137989012_8" function="internal">
        <lane id=":10137989012_8_0" index="0" disallow="tram rail_urban rail rail_electric rail_fast ship cable_car subway" speed="3.65" length="1.44" shape="49425.60,96546.45 49427.04,96546.62"/>
    </edge>
    <edge id=":10137989012_11" function="internal">
        <lane id=":10137989012_11_0" index="0" disallow="tram rail_urban rail rail_electric rail_fast ship cable_car subway" speed="3.65" length="3.23" shape="49427.04,96546.62 49427.76,96547.14 49427.77,96548.04 49427.07,96549.30"/>
    </edge>
    <edge id=":10137989013_0" function="internal">
        <lane id=":10137989013_0_0" index="0" disallow="tram rail_urban rail rail_electric rail_fast ship cable_car subway" speed="3.65" length="4.67" shape="49050.43,96743.62 49049.00,96743.46 49048.28,96742.93 49048.27,96742.04 49048.97,96740.78"/>
    </edge>
    <edge id=":10137989015_0" function="internal">
        <lane id=":10137989015_0_0" index="0" disallow="tram rail_urban rail rail_electric rail_fast ship cable_car subway" speed="13.89" length="14.41" shape="49175.24,96679.22 49162.44,96685.83"/>
    </edge>
    <edge id=":10137989015_1" function="internal">
        <lane id=":10137989015_1_0" index="0" disallow="tram rail_urban rail rail_electric rail_fast ship cable_car subway" speed="7.92" length="4.10" shape="49175.24,96679.22 49171.50,96680.52 49171.36,96680.51"/>
    </edge>
    <edge id=":10137989015_2" function="internal">
        <lane id=":10137989015_2_0" index="0" disallow="tram rail_urban rail rail_electric rail_fast ship cable_car subway" speed="3.65" length="1.44" shape="49175.24,96679.22 49173.81,96679.06"/>
    </edge>
    <edge id=":10137989015_9" function="internal">
        <lane id=":10137989015_9_0" index="0" disallow="tram rail_urban rail rail_electric rail_fast ship cable_car subway" speed="7.92" length="10.26" shape="49171.36,96680.51 49168.29,96680.28 49165.61,96678.49 49163.45,96675.17"/>
    </edge>
    <edge id=":10137989015_10" function="internal">
        <lane id=":10137989015_10_0" index="0" disallow="tram rail_urban rail rail_electric rail_fast ship cable_car subway" speed="3.65" length="3.23" shape="49173.81,96679.06 49173.09,96678.54 49173.08,96677.64 49173.77,96676.38"/>
    </edge>
    <edge id=":10137989015_3" function="internal">
        <lane id=":10137989015_3_0" index="0" disallow="tram rail_urban rail rail_electric rail_fast ship cable_car subway" speed="6.41" length="9.04" shape="49166.36,96673.83 49167.71,96675.92 49169.40,96677.04 49171.42,96677.20 49173.77,96676.38"/>
    </edge>
    <edge id=":10137989015_4" function="internal">
        <lane id=":10137989015_4_0" index="0" disallow="tram rail_urban rail rail_electric rail_fast ship cable_car subway" speed="8.15" length="14.26" shape="49166.36,96673.83 49167.51,96677.60 49167.24,96680.86 49165.55,96683.60 49162.44,96685.83"/>
    </edge>
    <edge id=":10137989015_5" function="internal">
        <lane id=":10137989015_5_0" index="0" disallow="tram rail_urban rail rail_electric rail_fast ship cable_car subway" speed="3.65" length="4.67" shape="49166.36,96673.83 49166.13,96675.25 49165.58,96675.95 49164.68,96675.92 49163.45,96675.17"/>
    </edge>
    <edge id=":10137989015_6" function="internal">
        <lane id=":10137989015_6_0" index="0" disallow="tram rail_urban rail rail_electric rail_fast ship cable_car subway" speed="6.68" length="9.26" shape="49160.97,96682.99 49162.97,96681.55 49164.05,96679.76 49164.21,96677.64 49163.45,96675.17"/>
    </edge>
    <edge id=":10137989015_7" function="internal">
        <lane id=":10137989015_7_0" index="0" disallow="tram rail_urban rail rail_electric rail_fast ship cable_car subway" speed="13.89" length="14.41" shape="49160.97,96682.99 49173.77,96676.38"/>
    </edge>
    <edge id=":10137989015_8" function="internal">
        <lane id=":10137989015_8_0" index="0" disallow="tram rail_urban rail rail_electric rail_fast ship cable_car subway" speed="3.65" length="1.44" shape="49160.97,96682.99 49162.41,96683.15"/>
    </edge>
    <edge id=":10137989015_11" function="internal">
        <lane id=":10137989015_11_0" index="0" disallow="tram rail_urban rail rail_electric rail_fast ship cable_car subway" speed="3.65" length="3.23" shape="49162.41,96683.15 49163.13,96683.67 49163.14,96684.57 49162.44,96685.83"/>
    </edge>
    <edge id=":10137989064_0" function="internal">
        <lane id=":10137989064_0_0" index="0" disallow="tram rail_urban rail rail_electric rail_fast ship cable_car subway" speed="5.99" length="8.03" shape="47957.56,97670.02 47955.27,97668.37 47953.94,97666.78 47953.57,97665.26 47954.16,97663.80"/>
    </edge>
    <edge id=":10137989064_1" function="internal">
        <lane id=":10137989064_1_0" index="0" disallow="tram rail_urban rail rail_electric rail_fast ship cable_car subway" speed="3.65" length="4.67" shape="47956.72,97665.71 47955.37,97666.19 47954.49,97666.04 47954.08,97665.24 47954.16,97663.80"/>
    </edge>
    <edge id=":10137989065_0" function="internal">
        <lane id=":10137989065_0_0" index="0" disallow="tram rail_urban rail rail_electric rail_fast ship cable_car subway" speed="3.65" length="4.67" shape="48325.65,97166.12 48327.01,97165.64 48327.89,97165.80 48328.29,97166.60 48328.21,97168.04"/>
    </edge>
    <edge id=":10139520130_0" function="internal">
        <lane id=":10139520130_0_0" index="0" disallow="tram rail_urban rail rail_electric rail_fast ship cable_car subway" speed="6.33" length="9.04" shape="111008.17,4725.99 111005.77,4725.23 111003.78,4725.46 111002.17,4726.67 111000.95,4728.86"/>
    </edge>
    <edge id=":10139520130_1" function="internal">
        <lane id=":10139520130_1_0" index="0" disallow="tram rail_urban rail rail_electric rail_fast ship cable_car subway" speed="8.30" length="14.33" shape="111008.17,4725.99 111004.82,4723.79 111002.87,4721.10 111002.29,4717.92 111003.10,4714.24"/>
    </edge>
    <edge id=":10139520130_2" function="internal">
        <lane id=":10139520130_2_0" index="0" disallow="tram rail_urban rail rail_electric rail_fast ship cable_car subway" speed="3.65" length="4.67" shape="111008.17,4725.99 111007.43,4724.75 111007.42,4723.85 111008.13,4723.31 111009.56,4723.11"/>
    </edge>
    <edge id=":10139520130_3" function="internal">
        <lane id=":10139520130_3_0" index="0" disallow="tram rail_urban rail rail_electric rail_fast ship cable_car subway" speed="6.86" length="9.49" shape="111006.09,4715.38 111005.57,4717.78 111005.98,4719.87 111007.31,4721.64 111009.56,4723.11"/>
    </edge>
    <edge id=":10139520130_4" function="internal">
        <lane id=":10139520130_4_0" index="0" disallow="tram rail_urban rail rail_electric rail_fast ship cable_car subway" speed="13.89" length="14.42" shape="111006.09,4715.38 111000.95,4728.86"/>
    </edge>
    <edge id=":10139520130_5" function="internal">
        <lane id=":10139520130_5_0" index="0" disallow="tram rail_urban rail rail_electric rail_fast ship cable_car subway" speed="3.65" length="1.44" shape="111006.09,4715.38 111004.91,4716.22"/>
    </edge>
    <edge id=":10139520130_9" function="internal">
        <lane id=":10139520130_9_0" index="0" disallow="tram rail_urban rail rail_electric rail_fast ship cable_car subway" speed="3.65" length="3.23" shape="111004.91,4716.22 111004.02,4716.30 111003.42,4715.65 111003.10,4714.24"/>
    </edge>
    <edge id=":10139520130_6" function="internal">
        <lane id=":10139520130_6_0" index="0" disallow="tram rail_urban rail rail_electric rail_fast ship cable_car subway" speed="13.89" length="14.42" shape="110997.96,4727.72 111003.10,4714.24"/>
    </edge>
    <edge id=":10139520130_7" function="internal">
        <lane id=":10139520130_7_0" index="0" disallow="tram rail_urban rail rail_electric rail_fast ship cable_car subway" speed="7.85" length="4.14" shape="110997.96,4727.72 110999.92,4724.19 111000.01,4724.13"/>
    </edge>
    <edge id=":10139520130_8" function="internal">
        <lane id=":10139520130_8_0" index="0" disallow="tram rail_urban rail rail_electric rail_fast ship cable_car subway" speed="3.65" length="1.44" shape="110997.96,4727.72 110999.13,4726.88"/>
    </edge>
    <edge id=":10139520130_10" function="internal">
        <lane id=":10139520130_10_0" index="0" disallow="tram rail_urban rail rail_electric rail_fast ship cable_car subway" speed="7.85" length="10.39" shape="111000.01,4724.13 111002.50,4722.25 111005.72,4721.89 111009.56,4723.11"/>
    </edge>
    <edge id=":10139520130_11" function="internal">
        <lane id=":10139520130_11_0" index="0" disallow="tram rail_urban rail rail_electric rail_fast ship cable_car subway" speed="3.65" length="3.23" shape="110999.13,4726.88 111000.02,4726.79 111000.63,4727.45 111000.95,4728.86"/>
    </edge>
    <edge id=":10139520715_0" function="internal">
        <lane id=":10139520715_0_0" index="0" disallow="tram rail_urban rail rail_electric rail_fast ship cable_car subway" speed="5.99" length="9.08" shape="111117.04,4440.80 111114.76,4439.55 111112.82,4439.48 111111.22,4440.58 111109.96,4442.86"/>
    </edge>
    <edge id=":10139520715_1" function="internal">
        <lane id=":10139520715_1_0" index="0" disallow="tram rail_urban rail rail_electric rail_fast ship cable_car subway" speed="13.89" length="16.36" shape="111117.04,4440.80 111103.98,4430.95"/>
    </edge>
    <edge id=":10139520715_2" function="internal">
        <lane id=":10139520715_2_0" index="0" disallow="tram rail_urban rail rail_electric rail_fast ship cable_car subway" speed="9.34" length="4.57" shape="111117.04,4440.80 111113.94,4437.77 111113.84,4437.55"/>
    </edge>
    <edge id=":10139520715_3" function="internal">
        <lane id=":10139520715_3_0" index="0" disallow="tram rail_urban rail rail_electric rail_fast ship cable_car subway" speed="3.65" length="1.44" shape="111117.04,4440.80 111116.56,4439.44"/>
    </edge>
    <edge id=":10139520715_16" function="internal">
        <lane id=":10139520715_16_0" index="0" disallow="tram rail_urban rail rail_electric rail_fast ship cable_car subway" speed="9.34" length="11.58" shape="111113.84,4437.55 111112.26,4434.39 111111.98,4430.63 111113.11,4426.51"/>
    </edge>
    <edge id=":10139520715_17" function="internal">
        <lane id=":10139520715_17_0" index="0" disallow="tram rail_urban rail rail_electric rail_fast ship cable_car subway" speed="3.65" length="3.23" shape="111116.56,4439.44 111116.72,4438.56 111117.52,4438.16 111118.96,4438.23"/>
    </edge>
    <edge id=":10139520715_4" function="internal">
        <lane id=":10139520715_4_0" index="0" disallow="tram rail_urban rail rail_electric rail_fast ship cable_car subway" speed="8.07" length="11.84" shape="111116.06,4427.76 111115.23,4430.78 111115.44,4433.53 111116.68,4436.01 111118.96,4438.23"/>
    </edge>
    <edge id=":10139520715_5" function="internal">
        <lane id=":10139520715_5_0" index="0" disallow="tram rail_urban rail rail_electric rail_fast ship cable_car subway" speed="13.89" length="16.28" shape="111116.06,4427.76 111109.96,4442.86"/>
    </edge>
    <edge id=":10139520715_6" function="internal">
        <lane id=":10139520715_6_0" index="0" disallow="tram rail_urban rail rail_electric rail_fast ship cable_car subway" speed="7.63" length="15.23" shape="111116.06,4427.76 111113.80,4431.47 111111.04,4433.23 111107.77,4433.06 111103.98,4430.95"/>
    </edge>
    <edge id=":10139520715_7" function="internal">
        <lane id=":10139520715_7_0" index="0" disallow="tram rail_urban rail rail_electric rail_fast ship cable_car subway" speed="3.65" length="4.67" shape="111116.06,4427.76 111114.85,4428.55 111113.96,4428.61 111113.38,4427.92 111113.11,4426.51"/>
    </edge>
    <edge id=":10139520715_8" function="internal">
        <lane id=":10139520715_8_0" index="0" disallow="tram rail_urban rail rail_electric rail_fast ship cable_car subway" speed="6.04" length="9.07" shape="111105.92,4428.41 111108.17,4429.66 111110.13,4429.77 111111.77,4428.71 111113.11,4426.51"/>
    </edge>
    <edge id=":10139520715_9" function="internal">
        <lane id=":10139520715_9_0" index="0" disallow="tram rail_urban rail rail_electric rail_fast ship cable_car subway" speed="13.89" length="16.33" shape="111105.92,4428.41 111118.96,4438.23"/>
    </edge>
    <edge id=":10139520715_10" function="internal">
        <lane id=":10139520715_10_0" index="0" disallow="tram rail_urban rail rail_electric rail_fast ship cable_car subway" speed="9.58" length="4.44" shape="111105.92,4428.41 111108.95,4431.42 111109.02,4431.57"/>
    </edge>
    <edge id=":10139520715_11" function="internal">
        <lane id=":10139520715_11_0" index="0" disallow="tram rail_urban rail rail_electric rail_fast ship cable_car subway" speed="3.65" length="1.44" shape="111105.92,4428.41 111106.39,4429.77"/>
    </edge>
    <edge id=":10139520715_18" function="internal">
        <lane id=":10139520715_18_0" index="0" disallow="tram rail_urban rail rail_electric rail_fast ship cable_car subway" speed="9.58" length="11.79" shape="111109.02,4431.57 111110.63,4434.84 111110.97,4438.65 111109.96,4442.86"/>
    </edge>
    <edge id=":10139520715_19" function="internal">
        <lane id=":10139520715_19_0" index="0" disallow="tram rail_urban rail rail_electric rail_fast ship cable_car subway" speed="3.65" length="3.23" shape="111106.39,4429.77 111106.22,4430.65 111105.42,4431.04 111103.98,4430.95"/>
    </edge>
    <edge id=":10139520715_12" function="internal">
        <lane id=":10139520715_12_0" index="0" disallow="tram rail_urban rail rail_electric rail_fast ship cable_car subway" speed="8.33" length="12.08" shape="111106.97,4441.72 111107.72,4438.58 111107.48,4435.74 111106.23,4433.20 111103.98,4430.95"/>
    </edge>
    <edge id=":10139520715_13" function="internal">
        <lane id=":10139520715_13_0" index="0" disallow="tram rail_urban rail rail_electric rail_fast ship cable_car subway" speed="13.89" length="16.40" shape="111106.97,4441.72 111113.11,4426.51"/>
    </edge>
    <edge id=":10139520715_14" function="internal">
        <lane id=":10139520715_14_0" index="0" disallow="tram rail_urban rail rail_electric rail_fast ship cable_car subway" speed="7.60" length="15.37" shape="111106.97,4441.72 111109.10,4437.87 111111.81,4436.01 111115.10,4436.13 111118.96,4438.23"/>
    </edge>
    <edge id=":10139520715_15" function="internal">
        <lane id=":10139520715_15_0" index="0" disallow="tram rail_urban rail rail_electric rail_fast ship cable_car subway" speed="3.65" length="4.67" shape="111106.97,4441.72 111108.15,4440.88 111109.04,4440.79 111109.64,4441.45 111109.96,4442.86"/>
    </edge>
    <edge id=":10139520718_0" function="internal">
        <lane id=":10139520718_0_0" index="0" disallow="tram rail_urban rail rail_electric rail_fast ship cable_car subway" speed="6.23" length="9.05" shape="111391.18,3841.20 111388.97,3839.97 111386.98,3839.81 111385.21,3840.74 111383.67,3842.74"/>
    </edge>
    <edge id=":10139520718_1" function="internal">
        <lane id=":10139520718_1_0" index="0" disallow="tram rail_urban rail rail_electric rail_fast ship cable_car subway" speed="27.78" length="14.47" shape="111391.18,3841.20 111379.65,3832.46"/>
    </edge>
    <edge id=":10139520718_2" function="internal">
        <lane id=":10139520718_2_0" index="0" disallow="tram rail_urban rail rail_electric rail_fast ship cable_car subway" speed="3.65" length="1.44" shape="111391.18,3841.20 111390.71,3839.84"/>
    </edge>
    <edge id=":10139520718_9" function="internal">
        <lane id=":10139520718_9_0" index="0" disallow="tram rail_urban rail rail_electric rail_fast ship cable_car subway" speed="3.65" length="3.23" shape="111390.71,3839.84 111390.88,3838.96 111391.68,3838.56 111393.12,3838.66"/>
    </edge>
    <edge id=":10139520718_3" function="internal">
        <lane id=":10139520718_3_0" index="0" disallow="tram rail_urban rail rail_electric rail_fast ship cable_car subway" speed="27.78" length="14.50" shape="111381.57,3829.90 111393.12,3838.66"/>
    </edge>
    <edge id=":10139520718_4" function="internal">
        <lane id=":10139520718_4_0" index="0" disallow="tram rail_urban rail rail_electric rail_fast ship cable_car subway" speed="8.47" length="3.90" shape="111381.57,3829.90 111384.16,3832.55 111384.23,3832.73"/>
    </edge>
    <edge id=":10139520718_5" function="internal">
        <lane id=":10139520718_5_0" index="0" disallow="tram rail_urban rail rail_electric rail_fast ship cable_car subway" speed="3.65" length="1.44" shape="111381.57,3829.90 111382.05,3831.26"/>
    </edge>
    <edge id=":10139520718_10" function="internal">
        <lane id=":10139520718_10_0" index="0" disallow="tram rail_urban rail rail_electric rail_fast ship cable_car subway" speed="8.47" length="10.54" shape="111384.23,3832.73 111385.38,3835.58 111385.21,3838.97 111383.67,3842.74"/>
    </edge>
    <edge id=":10139520718_11" function="internal">
        <lane id=":10139520718_11_0" index="0" disallow="tram rail_urban rail rail_electric rail_fast ship cable_car subway" speed="3.65" length="3.23" shape="111382.05,3831.26 111381.89,3832.14 111381.09,3832.54 111379.65,3832.46"/>
    </edge>
    <edge id=":10139520718_6" function="internal">
        <lane id=":10139520718_6_0" index="0" disallow="tram rail_urban rail rail_electric rail_fast ship cable_car subway" speed="7.06" length="9.75" shape="111380.88,3841.17 111381.96,3838.57 111382.12,3836.26 111381.34,3834.22 111379.65,3832.46"/>
    </edge>
    <edge id=":10139520718_7" function="internal">
        <lane id=":10139520718_7_0" index="0" disallow="tram rail_urban rail rail_electric rail_fast ship cable_car subway" speed="7.77" length="14.74" shape="111380.88,3841.17 111383.40,3837.90 111386.28,3836.40 111389.52,3836.65 111393.12,3838.66"/>
    </edge>
    <edge id=":10139520718_8" function="internal">
        <lane id=":10139520718_8_0" index="0" disallow="tram rail_urban rail rail_electric rail_fast ship cable_car subway" speed="3.65" length="4.67" shape="111380.88,3841.17 111382.17,3840.51 111383.06,3840.56 111383.56,3841.30 111383.67,3842.74"/>
    </edge>
    <edge id=":1107993215#1-AddedOffRampNode_0" function="internal">
        <lane id=":1107993215#1-AddedOffRampNode_0_0" index="0" allow="private emergency authority army vip passenger hov taxi bus coach delivery truck trailer motorcycle evehicle custom1 custom2" speed="22.22" length="8.40" shape="49682.84,96277.04 49681.02,96278.77 49680.30,96280.52 49679.58,96282.27 49677.75,96284.00"/>
        <lane id=":1107993215#1-AddedOffRampNode_0_1" index="1" allow="private emergency authority army vip passenger hov taxi bus coach delivery truck trailer motorcycle evehicle custom1 custom2" speed="22.22" length="8.40" shape="49682.84,96277.04 49676.06,96281.28"/>
    </edge>
    <edge id=":1107993215#1-AddedOnRampNode_0" function="internal">
        <lane id=":1107993215#1-AddedOnRampNode_0_0" index="0" allow="private emergency authority army vip passenger hov taxi bus coach delivery truck trailer motorcycle evehicle custom1 custom2" speed="22.22" length="8.00" shape="50025.12,96319.78 50018.06,96316.02"/>
    </edge>
    <edge id=":1107993227#4-AddedOnRampNode_0" function="internal">
        <lane id=":1107993227#4-AddedOnRampNode_0_0" index="0" disallow="tram rail_urban rail rail_electric rail_fast ship cable_car subway" speed="22.22" length="8.00" shape="49664.55,96455.93 49671.12,96460.50"/>
        <lane id=":1107993227#4-AddedOnRampNode_0_1" index="1" disallow="tram rail_urban rail rail_electric rail_fast ship cable_car subway" speed="22.22" length="8.00" shape="49662.72,96458.56 49669.29,96463.13"/>
    </edge>
    <edge id=":1108156416-AddedOffRampNode_0" function="internal">
        <lane id=":1108156416-AddedOffRampNode_0_0" index="0" allow="private emergency authority army vip passenger hov taxi bus coach delivery truck trailer motorcycle evehicle custom1 custom2" speed="39.44" length="8.20" shape="112016.47,5246.24 112015.61,5248.60 112015.74,5250.49 112015.87,5252.37 112015.01,5254.73"/>
        <lane id=":1108156416-AddedOffRampNode_0_1" index="1" allow="private emergency authority army vip passenger hov taxi bus coach delivery truck trailer motorcycle evehicle custom1 custom2" speed="39.44" length="8.20" shape="112016.47,5246.24 112012.28,5253.06"/>
        <lane id=":1108156416-AddedOffRampNode_0_2" index="2" allow="private emergency authority army vip passenger hov taxi bus coach delivery truck trailer motorcycle evehicle custom1 custom2" speed="39.44" length="8.20" shape="112013.74,5244.57 112009.55,5251.39"/>
        <lane id=":1108156416-AddedOffRampNode_0_3" index="3" allow="private emergency authority army vip passenger hov taxi bus coach delivery truck trailer motorcycle evehicle custom1 custom2" speed="39.44" length="8.20" shape="112011.01,5242.90 112006.83,5249.71"/>
    </edge>
    <edge id=":11088751427_0" function="internal">
        <lane id=":11088751427_0_0" index="0" disallow="tram rail_urban rail rail_electric rail_fast ship cable_car subway" speed="27.78" length="20.06" shape="108579.40,2251.00 108591.01,2234.68"/>
        <lane id=":11088751427_0_1" index="1" disallow="tram rail_urban rail rail_electric rail_fast ship cable_car subway" speed="27.78" length="20.06" shape="108581.97,2252.91 108593.62,2236.54"/>
    </edge>
    <edge id=":11088751427_2" function="internal">