<?xml version="1.0" encoding="UTF-8"?>

<!-- generated on 2025-01-19 11:32:55 by Eclipse SUMO netedit Version 1.19.0
-->

<additional xmlns:xsi="http://www.w3.org/2001/XMLSchema-instance" xsi:noNamespaceSchemaLocation="http://sumo.dlr.de/xsd/additional_file.xsd">
    <!-- Shapes -->
    <poly id="1002247506" type="water" color="181,209,209" fill="0" layer="-4.00" shape="64772.079635,83036.476350 64790.845180,82954.776198"/>
    <poly id="1009187646" type="water" color="181,209,209" fill="0" layer="-4.00" shape="108058.762447,10788.318059 108107.596371,10717.656003"/>
    <poly id="1009187647" type="water" color="181,209,209" fill="0" layer="-4.00" shape="107508.302979,11615.490168 107737.839476,11270.197571 108058.762447,10788.318059"/>
    <poly id="1009187648" type="water" color="181,209,209" fill="1" layer="-4.00" shape="109686.298409,9920.694016"/>
    <poly id="1009187678" type="building" color="255,230,230" fill="1" layer="-1.00" shape="108537.695491,12377.937361 108572.544635,12313.090949 108537.695491,12377.937361"/>
    <poly id="1009187680" type="building" color="255,230,230" fill="1" layer="-1.00" shape="107441.030172,12429.324876 107568.941199,12460.177700 107587.536104,12383.692933 107459.633023,12352.851319 107441.030172,12429.324876"/>
    <poly id="1009187681" type="water" color="181,209,209" fill="0" layer="-4.00" shape="107427.643059,11732.809370 107460.648484,11686.224631"/>
    <poly id="1009187682" type="water" color="181,209,209" fill="0" layer="-4.00" shape="107382.402567,11796.656971 107427.643059,11732.809370"/>
    <poly id="1009187683" type="water" color="181,209,209" fill="0" layer="-4.00" shape="108107.596371,10717.656003 108212.466213,10567.385609 108287.595199,10448.232113 108597.613715,9987.522597 109293.704852,8943.997021 109473.599050,8506.880380 109494.039741,8457.018311"/>
    <poly id="1009187684" type="water" color="181,209,209" fill="0" layer="-4.00" shape="107460.648484,11686.224631 107508.302979,11615.490168"/>
    <poly id="1009187692" type="building" color="255,230,230" fill="1" layer="-1.00" shape="109905.019440,8260.946045 109929.745426,8222.702029 109839.125873,8164.635348 109814.400151,8202.879578 109905.019440,8260.946045"/>
    <poly id="1009187693" type="building" color="255,230,230" fill="1" layer="-1.00" shape="109853.387276,8146.905605 109941.261566,8204.885957 109965.168888,8168.981569 109877.294364,8111.001016 109853.387276,8146.905605"/>
    <poly id="1009187694" type="building" color="255,230,230" fill="1" layer="-1.00" shape="109740.078343,8071.224111 109826.699208,8129.408141 109851.523043,8092.788325 109764.901948,8034.604089 109740.078343,8071.224111"/>
    <poly id="1009187695" type="building" color="255,230,230" fill="1" layer="-1.00" shape="109701.350977,8126.951256 109789.218546,8185.174214 109813.286658,8149.174624 109725.418855,8090.951463 109701.350977,8126.951256"/>
    <poly id="1009187696" type="building" color="255,230,230" fill="1" layer="-1.00" shape="109477.470218,7523.024375 109603.614176,7611.798345 109695.595086,7482.288342 109569.450001,7393.513251 109477.470218,7523.024375"/>
    <poly id="1009187697" type="building" color="255,230,230" fill="1" layer="-1.00" shape="109709.540593,7802.713617 109737.956149,7757.944476 109622.559357,7685.375264 109594.153509,7730.145009 109709.540593,7802.713617"/>
    <poly id="1009187698" type="building" color="255,230,230" fill="1" layer="-1.00" shape="109460.589960,7639.771858 109574.485451,7715.101273 109600.774798,7675.717393 109486.878975,7600.387692 109460.589960,7639.771858"/>
    <poly id="1009187699" type="building" color="255,230,230" fill="1" layer="-1.00" shape="109669.830466,7863.007446 109693.608953,7826.743019 109580.367857,7753.187108 109556.598637,7789.463177 109669.830466,7863.007446"/>
    <poly id="1009187700" type="building" color="255,230,230" fill="1" layer="-1.00" shape="109560.508308,7735.050228 109447.876313,7661.615185 109421.323896,7701.979478 109533.955898,7775.403141 109560.508308,7735.050228"/>
    <poly id="1009187701" type="building" color="255,230,230" fill="1" layer="-1.00" shape="109166.810337,7675.915485 109248.802233,7730.716726 109265.364146,7706.162362 109183.381409,7651.361284 109166.810337,7675.915485"/>
    <poly id="1009187702" type="building" color="255,230,230" fill="1" layer="-1.00" shape="109139.770669,7717.597696 109229.418125,7775.126690 109243.937893,7752.706904 109154.290284,7695.177786 109139.770669,7717.597696"/>
    <poly id="1009187703" type="building" color="255,230,230" fill="1" layer="-1.00" shape="109113.507106,7758.304900 109201.615242,7816.784760 109217.420321,7793.183789 109129.302377,7734.714597 109113.507106,7758.304900"/>
    <poly id="1009187704" type="building" color="255,230,230" fill="1" layer="-1.00" shape="108995.318110,7646.655967 108979.222027,7670.636795 109083.981085,7740.331956 109100.077352,7716.351289 108995.318110,7646.655967"/>
    <poly id="1009187705" type="building" color="255,230,230" fill="1" layer="-1.00" shape="109112.351368,7699.579784 109128.413772,7675.198315 109029.977074,7610.931535 109013.915199,7635.302061 109112.351368,7699.579784"/>
    <poly id="1009187706" type="building" color="255,230,230" fill="1" layer="-1.00" shape="109041.353718,7593.365544 109139.847930,7658.178368 109155.727609,7634.279805 109057.223915,7569.466540 109041.353718,7593.365544"/>
    <poly id="1009187707" type="building" color="255,230,230" fill="0" layer="-1.00" shape="108925.314362,7586.203380 108967.347229,7523.603377"/>
    <poly id="1009187717" type="building" color="255,230,230" fill="0" layer="-1.00" shape="108900.408040,7625.243550 108916.730216,7600.881033"/>
    <poly id="1009187719" type="building" color="255,230,230" fill="0" layer="-1.00" shape="108870.628581,7724.296475 108900.816139,7679.336562"/>
    <poly id="1009187720" type="building" color="255,230,230" fill="0" layer="-1.00" shape="108825.705937,7793.235763 108856.240325,7747.897964"/>
    <poly id="1009187723" type="building" color="255,230,230" fill="1" layer="-1.00" shape="109057.709144,7848.078618 109153.444319,7910.773085 109182.981599,7866.082260 109087.246105,7803.387523 109057.709144,7848.078618"/>
    <poly id="1009187724" type="building" color="255,230,230" fill="1" layer="-1.00" shape="108934.367323,7764.985529 109028.562678,7826.331006 109056.562219,7783.723683 108962.366562,7722.377954 108934.367323,7764.985529"/>
    <poly id="1009187725" type="building" color="255,230,230" fill="1" layer="-1.00" shape="108895.307505,7839.749745 108982.712064,7897.206063 109012.996489,7851.538821 108925.600940,7794.082542 108895.307505,7839.749745"/>
    <poly id="1009187726" type="building" color="255,230,230" fill="1" layer="-1.00" shape="108856.335429,7911.140971 108937.337203,7965.408851 108967.240581,7921.184272 108886.238545,7866.916159 108856.335429,7911.140971"/>
    <poly id="1009187727" type="building" color="255,230,230" fill="1" layer="-1.00" shape="108968.420465,7986.284207 109057.555864,8044.040028 109086.080683,8000.416572 108996.944991,7942.660508 108968.420465,7986.284207"/>
    <poly id="1009187728" type="building" color="255,230,230" fill="1" layer="-1.00" shape="109015.064597,7917.121964 109107.841586,7978.479429 109136.230632,7935.928983 109043.462658,7874.571558 109015.064597,7917.121964"/>
    <poly id="1009187729" type="building" color="255,230,230" fill="1" layer="-1.00" shape="109343.485697,7812.657990 109450.404258,7884.957313 109478.919968,7843.177907 109372.001084,7770.878290 109343.485697,7812.657990"/>
    <poly id="1009187730" type="building" color="255,230,230" fill="1" layer="-1.00" shape="109303.853570,7870.845609 109413.580409,7943.588169 109439.914749,7904.216489 109330.187243,7831.484746 109303.853570,7870.845609"/>
    <poly id="1009187731" type="building" color="255,230,230" fill="1" layer="-1.00" shape="109410.525650,8209.386295 109379.047038,8254.481837 109464.812024,8313.812816 109496.291257,8268.706440 109410.525650,8209.386295"/>
    <poly id="1009187732" type="building" color="255,230,230" fill="1" layer="-1.00" shape="109271.314488,8183.312208 109359.896793,8242.552969 109389.491890,8198.697431 109300.909301,8139.456418 109271.314488,8183.312208"/>
    <poly id="1009187733" type="building" color="255,230,230" fill="1" layer="-1.00" shape="109509.568756,8250.245726 109540.159835,8202.290893 109450.738440,8145.753827 109420.147691,8193.708919 109509.568756,8250.245726"/>
    <poly id="1009187734" type="building" color="255,230,230" fill="1" layer="-1.00" shape="109401.611058,8179.445043 109430.731995,8135.274860 109342.353541,8077.527974 109313.223241,8121.709204 109401.611058,8179.445043"/>
    <poly id="1009187735" type="building" color="255,230,230" fill="1" layer="-1.00" shape="109193.764135,8066.729430 109164.205988,8111.208533 109240.331767,8161.350630 109269.899472,8116.872034 109193.764135,8066.729430"/>
    <poly id="1009187736" type="building" color="255,230,230" fill="1" layer="-1.00" shape="109205.512067,8050.685558 109293.156616,8108.396921 109322.852316,8063.711479 109235.216783,8006.000160 109205.512067,8050.685558"/>
    <poly id="1009187737" type="building" color="255,230,230" fill="1" layer="-1.00" shape="109492.882610,8085.002837 109463.853157,8129.508896 109552.514678,8186.810619 109581.544429,8142.304805 109492.882610,8085.002837"/>
    <poly id="1009187738" type="building" color="255,230,230" fill="1" layer="-1.00" shape="109352.758572,8057.388790 109443.114001,8116.852530 109472.850434,8072.079918 109382.494705,8012.615922 109352.758572,8057.388790"/>
    <poly id="1009187739" type="building" color="255,230,230" fill="1" layer="-1.00" shape="109246.880106,7985.833782 109334.770595,8045.218928 109364.946997,8000.959565 109277.056226,7941.574164 109246.880106,7985.833782"/>
    <poly id="1009187740" type="building" color="255,230,230" fill="1" layer="-1.00" shape="109654.729573,8242.029971 109721.158309,8287.029401 109745.932300,8250.785386 109679.503391,8205.785797 109654.729573,8242.029971"/>
    <poly id="1009187741" type="building" color="255,230,230" fill="1" layer="-1.00" shape="109756.113986,8310.283724 109822.596993,8353.531086 109849.495058,8312.556862 109783.011846,8269.309329 109756.113986,8310.283724"/>
    <poly id="1009187742" type="building" color="255,230,230" fill="1" layer="-1.00" shape="109611.405532,8305.030796 109677.491501,8349.663818 109703.665101,8311.264999 109637.579297,8266.620716 109611.405532,8305.030796"/>
    <poly id="1009187743" type="building" color="255,230,230" fill="1" layer="-1.00" shape="109781.073522,8415.532949 109805.863328,8378.490035 109739.059627,8334.188824 109714.270353,8371.220802 109781.073522,8415.532949"/>
    <poly id="1009187744" type="building" color="255,230,230" fill="1" layer="-1.00" shape="109687.141868,8402.371370 109657.762870,8449.097949 109739.202363,8499.844810 109768.581658,8453.118457 109687.141868,8402.371370"/>
    <poly id="1009187745" type="building" color="255,230,230" fill="1" layer="-1.00" shape="109562.963684,8384.750172 109640.490372,8436.427981 109670.853424,8391.287000 109593.326478,8339.608966 109562.963684,8384.750172"/>
    <poly id="1009187746" type="water" color="181,209,209" fill="0" layer="-4.00" shape="109708.727865,7933.358998 109894.958515,7479.167210 109905.402906,7453.688245"/>
    <poly id="1009187747" type="water" color="181,209,209" fill="0" layer="-4.00" shape="109494.039741,8457.018311 109522.571791,8387.433105"/>
    <poly id="1041999278" type="water" color="181,209,209" fill="1" layer="-4.00" shape="74324.496413,72041.413787 74443.739135,71826.502518 74511.233594,71861.017916 74394.355455,72062.662008 74380.823337,72067.217717 74324.496413,72041.413787"/>
    <poly id="1042464078" type="water" color="181,209,209" fill="0" layer="-4.00" shape="3045.138365,121936.181601 3000.229638,122123.877911 2856.650669,122703.413301 2362.774939,124697.106834 2145.939310,125584.865504 1950.226952,126386.223039 1924.460639,126491.737438"/>
    <poly id="1042464079" type="water" color="181,209,209" fill="1" layer="-4.00" shape="1924.460639,126491.737438"/>
    <poly id="1042464099" type="water" color="181,209,209" fill="0" layer="-4.00" shape="6790.051570,122398.872392 6689.073924,122492.639316 6649.726024,122624.338180"/>
    <poly id="1042767328" type="water" color="181,209,209" fill="1" layer="-4.00" shape="53866.793793,92041.521889"/>
    <poly id="1047503949" type="water" color="181,209,209" fill="0" layer="-4.00" shape="39781.849506,104690.403171 40380.723458,105110.841916"/>
    <poly id="1050551838" type="water" color="181,209,209" fill="0" layer="-4.00" shape="102723.231810,27106.782532 103117.729589,27337.501092"/>
    <poly id="1050551843" type="water" color="181,209,209" fill="0" layer="-4.00" shape="102329.773806,27876.241679 102724.635214,28101.561208"/>
    <poly id="1050551895" type="water" color="181,209,209" fill="0" layer="-4.00" shape="105489.388661,19689.961310 105520.588149,19467.375466 105554.528293,19209.706783"/>
    <poly id="1050551896" type="water" color="181,209,209" fill="0" layer="-4.00" shape="105175.022399,19658.396805 105489.388661,19689.961310"/>
    <poly id="1050575842" type="water" color="181,209,209" fill="0" layer="-4.00" shape="102911.822224,27735.935463 102663.971157,27562.417772"/>
    <poly id="1050575874" type="water" color="181,209,209" fill="0" layer="-4.00" shape="103263.523286,25574.631914 103027.101398,26028.998363 102983.799317,26111.085220"/>
    <poly id="1050575875" type="water" color="181,209,209" fill="0" layer="-4.00" shape="103263.523286,25574.631914 103369.084399,25370.327486 103567.940805,24983.727214"/>
    <poly id="1050575876" type="water" color="181,209,209" fill="1" layer="-4.00" shape="103263.523286,25574.631914"/>
    <poly id="1050575892" type="water" color="181,209,209" fill="1" layer="-4.00" shape="101808.059331,29305.592484 101830.807091,29274.736202 101808.059331,29305.592484"/>
    <poly id="1050575894" type="water" color="181,209,209" fill="0" layer="-4.00" shape="101290.359621,30886.524181 101519.677167,30439.552160 102724.635214,28101.561208 102911.822224,27735.935463 103117.729589,27337.501092 103321.864494,26940.358358 103582.025858,26431.279861 103859.230245,25889.754761 104013.354437,25638.226381"/>
    <poly id="1050575895" type="water" color="181,209,209" fill="1" layer="-4.00" shape="100771.201015,30571.835811"/>
    <poly id="1050575924" type="water" color="181,209,209" fill="1" layer="-4.00" shape="102875.840675,26053.886812"/>
    <poly id="1050575925" type="water" color="181,209,209" fill="0" layer="-4.00" shape="98666.941201,36475.188924 98705.455823,36142.755563"/>
    <poly id="1050575926" type="water" color="181,209,209" fill="0" layer="-4.00" shape="99989.832308,35994.242716 100125.112744,34718.923858 100281.391002,33157.628774 100333.886102,32644.583075"/>
    <poly id="1050575927" type="water" color="181,209,209" fill="0" layer="-4.00" shape="99675.428494,36882.602012 99543.246854,36812.292965 99155.825820,36648.117757 98996.351619,36575.125445 98859.904426,36501.609022 98650.091369,36366.407646 98609.068465,36324.910314 98468.309886,36188.740891 98337.872616,36040.497434 98257.579514,36143.908563 98459.599734,36371.725543 98587.963523,36485.851525 98743.780795,36597.100531 99061.766349,36754.187350 99570.584036,36975.332504 99755.262506,37077.581612"/>
    <poly id="1050575969" type="water" color="181,209,209" fill="1" layer="-4.00" shape="99989.832308,35994.242716"/>
    <poly id="1050575972" type="water" color="181,209,209" fill="0" layer="-4.00" shape="103582.025858,26431.279861 103279.157097,26267.557523"/>
    <poly id="1051149323" type="water" color="181,209,209" fill="0" layer="-4.00" shape="107554.239077,12961.828058 107440.278268,13187.940791 107266.107326,13519.031826 107228.666318,13598.392232 107204.288354,13659.272096 107105.106290,14020.038418 107064.474926,14162.240767 106984.551709,14442.001408 106904.620815,14723.016959 106833.564885,14974.827218 106869.418151,15239.183701"/>
    <poly id="1051149324" type="water" color="181,209,209" fill="0" layer="-4.00" shape="107621.964768,13957.165881 107527.735350,14295.164292 107449.819552,14574.607722 107367.652199,14856.161549 107278.847793,15171.155353"/>
    <poly id="1051149332" type="water" color="181,209,209" fill="0" layer="-4.00" shape="106659.769436,14652.616866 106904.620815,14723.016959 107367.652199,14856.161549"/>
    <poly id="1066207777" type="water" color="181,209,209" fill="1" layer="-4.00" shape="56633.569383,90750.665687"/>
    <poly id="1066933951" type="water" color="181,209,209" fill="0" layer="-4.00" shape="50233.428772,96568.359871 50596.138278,96840.818484"/>
    <poly id="1066933958" type="water" color="181,209,209" fill="0" layer="-4.00" shape="54006.288333,92774.543916 53752.897838,93016.646086 53257.256233,93548.704831 52845.761078,93988.372119 52785.718916,94060.196627 52715.102348,94148.238021 52395.620982,94553.625753 52233.820628,94759.954071 52024.941070,95025.388744 51436.462432,95765.516264 50808.018092,96561.705519 50596.138278,96840.818484"/>
    <poly id="1066933960" type="water" color="181,209,209" fill="0" layer="-4.00" shape="50498.003229,97053.863751 50464.233064,97127.186086"/>
    <poly id="1066939863" type="water" color="181,209,209" fill="0" layer="-4.00" shape="70373.064720,77859.066233 70388.774878,77590.754054 70396.086050,77549.271867"/>
    <poly id="1066994669" type="services" color="237,199,255" fill="1" layer="-2.00" shape="28741.596027,112651.688408 28763.635688,112515.072587 28905.825490,112464.406157 29012.669255,112549.305800 29133.508615,112586.363955 29115.330061,112716.435015 28967.257344,112775.303142 28860.875119,112701.979467 28741.596027,112651.688408"/>
    <poly id="1066994679" type="water" color="181,209,209" fill="0" layer="-4.00" shape="23596.866227,115256.615138 23579.558847,115345.005390"/>
    <poly id="1066994680" type="water" color="181,209,209" fill="0" layer="-4.00" shape="21916.845409,115268.888032 21718.818622,116272.022313"/>
    <poly id="1066994681" type="water" color="181,209,209" fill="0" layer="-4.00" shape="23694.172618,115300.777565 23806.636232,115534.096420 23996.420429,115860.867336"/>
    <poly id="1068024672" type="water" color="181,209,209" fill="0" layer="-4.00" shape="95199.959350,42550.451764 95079.221461,42587.997837 95002.697652,42649.114930 94940.775158,42737.424049 94899.304847,42873.921846 94577.081289,44078.611513"/>
    <poly id="1068028087" type="water" color="181,209,209" fill="0" layer="-4.00" shape="87412.878782,54779.394138 87179.222347,54778.913150"/>
    <poly id="1068028088" type="water" color="181,209,209" fill="0" layer="-4.00" shape="87412.878782,54779.394138 87449.235693,54806.008963 87575.022766,54860.901382 87706.151738,54898.444221"/>
    <poly id="1068028090" type="water" color="181,209,209" fill="0" layer="-4.00" shape="87131.453087,54629.038162 87412.878782,54779.394138"/>
    <poly id="1068028092" type="water" color="181,209,209" fill="0" layer="-4.00" shape="87412.878782,54779.394138 87440.471627,54636.702610"/>
    <poly id="1068028095" type="water" color="181,209,209" fill="0" layer="-4.00" shape="89660.775744,50102.428921 90427.231782,50227.090205"/>
    <poly id="1068028096" type="water" color="181,209,209" fill="0" layer="-4.00" shape="89496.626704,50591.924021 89661.223402,50626.544450"/>
    <poly id="1068028097" type="water" color="181,209,209" fill="0" layer="-4.00" shape="89520.701364,50518.382285 89496.626704,50591.924021"/>
    <poly id="1068028098" type="water" color="181,209,209" fill="0" layer="-4.00" shape="89747.191679,49845.830910 89660.775744,50102.428921 89520.701364,50518.382285"/>
    <poly id="1068030717" type="water" color="181,209,209" fill="0" layer="-4.00" shape="82277.056494,62618.134619 82479.820666,62631.279530"/>
    <poly id="1068030719" type="water" color="181,209,209" fill="0" layer="-4.00" shape="87437.695793,54940.215904 87449.235693,54806.008963"/>
    <poly id="1068030721" type="water" color="181,209,209" fill="1" layer="-4.00" shape="85599.010585,56586.099743"/>
    <poly id="1068052297" type="water" color="181,209,209" fill="0" layer="-4.00" shape="95245.495262,40645.746033 95180.940891,41268.890884 95070.798712,42328.501069"/>
    <poly id="1068052302" type="water" color="181,209,209" fill="0" layer="-4.00" shape="96890.944905,38615.123499 96834.353871,39136.763716 96639.693617,40931.091217"/>
    <poly id="1068052303" type="water" color="181,209,209" fill="0" layer="-4.00" shape="96890.944905,38615.123499 97668.740757,38656.001244 98407.017383,38694.910804"/>
    <poly id="1068052304" type="water" color="181,209,209" fill="0" layer="-4.00" shape="95917.479553,40888.302894 96639.693617,40931.091217"/>
    <poly id="1068052305" type="water" color="181,209,209" fill="0" layer="-4.00" shape="98375.433297,38876.784797 98407.017383,38694.910804 98441.701439,38495.209667 98481.947126,38246.420858 98585.736593,37604.936451 98600.048248,37504.504623 98610.483538,37375.405317 98619.956735,36984.485197 98630.924367,36756.719741 98635.368247,36725.020243 98658.326529,36561.204299 98666.941201,36475.188924"/>
    <poly id="1068321894" type="water" color="181,209,209" fill="0" layer="-4.00" shape="96834.353871,39136.763716 96608.663392,39128.593189"/>
    <poly id="1068321895" type="water" color="181,209,209" fill="1" layer="-4.00" shape="98375.433297,38876.784797"/>
    <poly id="1068321897" type="water" color="181,209,209" fill="1" layer="-4.00" shape="98481.947126,38246.420858"/>
    <poly id="1068321898" type="water" color="181,209,209" fill="1" layer="-4.00" shape="98600.048248,37504.504623"/>
    <poly id="1068321899" type="water" color="181,209,209" fill="0" layer="-4.00" shape="98103.915304,37618.230896 98335.959302,37611.825705"/>
    <poly id="1068324195" type="water" color="181,209,209" fill="0" layer="-4.00" shape="98418.807364,36508.745825 98465.947226,36596.467213 98562.003058,36680.733802 98635.368247,36725.020243 98858.562448,36789.976378"/>
    <poly id="1072808434" type="water" color="181,209,209" fill="1" layer="-4.00" shape="60002.389408,86849.952870 60204.882811,86908.183979 60246.418034,86874.307139 60203.400048,86761.711167 59984.932951,86726.215983 59995.680313,86786.662603 60000.164601,86822.284673 60002.389408,86849.952870"/>
    <poly id="1072808435" type="water" color="181,209,209" fill="1" layer="-4.00" shape="59759.398395,86713.713708 59717.647043,86682.502164 59710.996954,86671.976462 59725.473508,86594.461452 59705.842398,86477.571494 59695.606757,86453.128347 59698.295956,86427.069484 59705.967487,86417.907560 59717.420319,86415.752547 59753.327578,86425.103814 59779.284138,86417.923515 59792.645060,86418.284552 59801.847888,86425.926443 59768.541334,86466.932343 59764.748170,86479.162952 59758.773970,86535.205397 59761.484413,86563.386120 59779.748962,86602.333193 59787.910958,86611.922923 59799.137251,86618.143091 59823.332339,86620.772958 59837.659211,86640.386971 59835.325150,86653.633877 59827.604547,86664.270789 59782.290208,86709.891949 59771.229539,86715.998274 59759.398395,86713.713708"/>
    <poly id="1072808437" type="water" color="181,209,209" fill="0" layer="-4.00" shape="60635.055120,86459.924729 60594.273304,86631.772509 60214.441050,86939.503208 59438.160130,87586.071359 58809.034863,88105.478754 58453.618778,88411.908316 58060.131142,88772.519822 57598.705188,89211.648330 57343.469152,89460.135092 57253.818154,89557.096170 57155.813236,89663.103387 57126.918274,89706.688237 57082.065907,89791.251631 57013.335865,89932.033947 56969.958170,90020.888756 56633.569383,90750.665687"/>
    <poly id="1072808440" type="residential" color="235,235,227" fill="1" layer="-3.00" shape="60497.013714,86747.972341 60640.198299,86545.752724 60497.013714,86747.972341"/>
    <poly id="1072808454" type="water" color="181,209,209" fill="0" layer="-4.00" shape="61994.577194,84848.200976 61980.395232,84880.940317"/>
    <poly id="1072808472" type="water" color="181,209,209" fill="0" layer="-4.00" shape="59324.038206,86235.024235 60073.705744,86355.859053 60635.055120,86459.924729"/>
    <poly id="1084259327" type="water" color="181,209,209" fill="0" layer="-4.00" shape="110171.441265,6808.920430 110020.626191,7174.418953"/>
    <poly id="1084259328" type="water" color="181,209,209" fill="0" layer="-4.00" shape="110175.697606,6798.615898 110171.441265,6808.920430"/>
    <poly id="1086092357" type="landuse" color="194,194,130" fill="1" layer="-3.00" shape="73914.667287,72810.095409 74000.708703,72605.228674 73914.667287,72810.095409"/>
    <poly id="1086092358" type="landuse" color="194,194,130" fill="0" layer="-3.00" shape="73914.667287,72810.095409 74000.708703,72605.228674"/>
    <poly id="1086092369" type="water" color="181,209,209" fill="1" layer="-4.00" shape="73850.233276,72947.531157"/>
    <poly id="1093558157" type="water" color="181,209,209" fill="1" layer="-4.00" shape="8972.762679,121449.182035 9039.975595,121457.511334 9048.087942,121378.856416 8983.867456,121368.628443 8972.762679,121449.182035"/>
    <poly id="1093558158" type="water" color="181,209,209" fill="1" layer="-4.00" shape="8902.856678,121429.042673 8913.591483,121343.098942 8962.544396,121353.968780 8955.362461,121435.096504 8902.856678,121429.042673"/>
    <poly id="1093558159" type="water" color="181,209,209" fill="1" layer="-4.00" shape="8849.397809,121422.002863 8860.207092,121332.631790 8906.263702,121340.985551 8897.918399,121429.922248 8849.397809,121422.002863"/>
    <poly id="1093558160" type="water" color="181,209,209" fill="1" layer="-4.00" shape="8841.645634,121506.547083 8945.021474,121547.981055 8956.586474,121446.386663 8850.675574,121430.841758 8841.645634,121506.547083"/>
    <poly id="1093558161" type="residential" color="235,235,227" fill="1" layer="-3.00" shape="8237.112461,120873.894416 8612.220951,120952.601808 8614.101397,121046.666757 8706.046544,121071.202579 8739.034965,120957.326059 8824.225402,120975.845094 9015.575753,121043.694616 9054.115627,120901.543461 9207.586068,120947.017451 9222.622224,120844.511665 8847.170264,120781.440990 8686.512241,120749.531928 8691.217149,120624.273275 8628.449329,120615.067509 8621.436647,120710.891193 8509.960144,120724.125449 8253.075538,120683.265761 8237.112461,120873.894416"/>
    <poly id="1093558162" type="water" color="181,209,209" fill="1" layer="-4.00" shape="7924.541413,121063.453521 7938.307684,120883.052557 7880.193081,120885.715696 7847.793981,121018.205637 7887.060738,121045.004693 7924.541413,121063.453521"/>
    <poly id="1093558166" type="residential" color="235,235,227" fill="1" layer="-3.00" shape="7059.496978,121845.745875 7156.540870,121860.889536 7197.620684,121599.819230 7100.574072,121584.675269 7059.496978,121845.745875"/>
    <poly id="1093558167" type="water" color="181,209,209" fill="1" layer="-4.00" shape="7297.022684,121995.579716 7359.893037,122010.660615 7378.054606,121933.444077 7394.227837,121924.496261 7428.736643,121932.336780 7430.995497,121918.925436 7400.340243,121914.830563 7300.684363,121962.857103 7297.022684,121995.579716"/>
    <poly id="1093558178" type="water" color="181,209,209" fill="0" layer="-4.00" shape="7432.540415,122583.613383 7435.976496,122493.604125 7443.566444,122426.932962 7448.648051,122363.159049 7455.194698,122310.658045 7454.441807,122288.614516 7455.889854,122244.824682 7463.049686,122186.955059 7464.738287,122165.941108 7466.806192,122116.050410 7470.413167,122108.294448 7481.503865,122107.303726 7496.702394,122109.354049 7517.450396,122105.643712 7532.619017,122097.650828 7552.201534,122079.467178 7568.511711,122064.641333 7606.463061,122027.027161 7644.055286,121983.535097 7673.111847,121936.428574 7687.545673,121883.622063 7697.134779,121816.006888 7698.543934,121796.451653 7696.130971,121782.694589 7699.108052,121770.519558 7693.846528,121752.039866 7690.775636,121712.313035 7692.717648,121657.270672 7692.921894,121636.468582 7693.782343,121608.323577 7707.751816,121565.050246 7727.945798,121530.234955 7740.048960,121516.549564 7770.270005,121506.432093 7806.442738,121494.491199 7814.754677,121485.605991 7811.663028,121480.645005 7802.051353,121481.656477 7781.262988,121487.573668 7764.721459,121490.154391 7743.855621,121488.224526 7720.319542,121484.782938 7708.936288,121488.197265 7700.079006,121499.756128 7691.270939,121508.630640 7679.639357,121512.050696 7669.377697,121509.130989 7661.750651,121497.945980 7648.278700,121472.685183 7637.538625,121457.515330 7628.837728,121450.468308 7602.917500,121409.512367 7564.610791,121361.429450 7558.090862,121367.402071 7595.128740,121417.177383 7619.617141,121455.905001"/>