<?xml version="1.0" encoding="UTF-8"?>

<!-- generated on 2025-06-27 17:45:38 by Eclipse SUMO netedit Version 1.23.1
-->

<routes xmlns:xsi="http://www.w3.org/2001/XMLSchema-instance" xsi:noNamespaceSchemaLocation="http://sumo.dlr.de/xsd/routes_file.xsd">
    <!-- 基础车辆类型定义 -->
    <vType id="car_eco" maxSpeed="30.56" tau="1.5" accel="1.8" decel="3.5" sigma="0.3" length="4.5" width="1.7" minGap="2.0" speedFactor="normc(0.85,0.15,0.8,1.3)" color="#00FF00"/>
    <vType id="car_sedan" maxSpeed="36.11" tau="1.2" accel="2.2" decel="4.0" sigma="0.5" length="5.0" width="1.8" minGap="2.5" speedFactor="normc(1.05,0.15,0.85,1.35)" color="#FF00FF"/>
    <vType id="car_sport" maxSpeed="44.44" tau="0.8" accel="3.5" decel="6.0" sigma="0.2" length="4.8" width="1.9" minGap="2.0" speedFactor="normc(1.15,0.2,0.9,1.5)" color="#FF0000"/>
    <vType id="car_suv" maxSpeed="33.33" tau="1.3" accel="2.0" decel="3.8" sigma="0.6" length="5.2" width="2.0" minGap="3.0" speedFactor="normc(0.95,0.15,0.8,1.3)" color="#808080"/>
    <vType id="car_van" maxSpeed="27.78" tau="1.4" accel="1.6" decel="3.2" sigma="0.7" length="5.5" width="1.9" minGap="3.5" speedFactor="normc(0.90,0.15,0.75,1.25)" color="#C0C0C0"/>
    <vType id="car_bus" maxSpeed="27.78" tau="1.6" accel="1.4" decel="3.0" sigma="0.8" length="12.0" width="2.5" minGap="4.0" vClass="bus" speedFactor="normc(0.9,0.1,0.7,1.2)" color="#FFFF00"/>

    <!-- 卡车类型 -->
    <vType id="truck_light" maxSpeed="30.56" tau="1.5" accel="1.8" decel="3.5" sigma="0.6" length="7.5" width="2.3" minGap="4.0" vClass="truck" speedFactor="normc(1.0,0.1,0.8,1.2)" color="#A52A2A"/>
    <vType id="truck_medium" maxSpeed="27.78" tau="1.6" accel="1.5" decel="3.0" sigma="0.7" length="10.0" width="2.4" minGap="5.0" vClass="truck" speedFactor="normc(0.95,0.1,0.75,1.15)" color="#006400"/>
    <vType id="truck_heavy" maxSpeed="26.00" tau="1.8" accel="1.2" decel="2.5" sigma="0.8" length="12.5" width="2.5" minGap="6.0" vClass="truck" speedFactor="normc(0.9,0.1,0.7,1.1)" color="#0F0C8B"/>
    <vType id="truck_concrete" maxSpeed="22.22" tau="2.0" accel="1.0" decel="2.0" sigma="0.9" length="14.0" width="2.6" minGap="7.0" vClass="truck" speedFactor="normc(0.85,0.1,0.65,1.05)" color="#2F4F4F"/>

    <!-- 拖车类型 -->
    <vType id="trailer_standard" maxSpeed="25.00" tau="1.8" accel="1.2" decel="2.5" sigma="0.7" length="16.5" width="2.5" minGap="7.0" vClass="trailer" speedFactor="normc(1.0,0.1,0.75,1.35)" color="#800080"/>
    <vType id="trailer_long" maxSpeed="26.22" tau="2.0" accel="1.0" decel="2.2" sigma="0.8" length="20.0" width="2.5" minGap="8.0" vClass="trailer" speedFactor="normc(1.05,0.1,0.7,1.3)" color="#4B0082"/>
    <vType id="trailer_double" maxSpeed="25.00" tau="2.2" accel="0.9" decel="2.0" sigma="0.9" length="24.0" width="2.6" minGap="9.0" vClass="trailer" speedFactor="normc(0.95,0.1,0.65,1.45)" color="#483D8B"/>
    <vType id="tank_truck" maxSpeed="26.22" tau="1.9" accel="1.1" decel="2.3" sigma="0.8" length="17.0" width="2.5" minGap="6.5" vClass="trailer" speedFactor="normc(0.98,0.1,0.9,1.5)" color="#FFA500"/>

    <!-- 基础子分布定义 -->
    <vTypeDistribution id="car_types" vTypes="car_eco car_sedan car_sport car_suv car_van car_bus" probabilities="0.15 0.3 0.1 0.25 0.15 0.05"/>
    <vTypeDistribution id="truck_types" vTypes="truck_light truck_medium truck_heavy truck_concrete" probabilities="0.4 0.35 0.2 0.05"/>
    <vTypeDistribution id="trailer_types" vTypes="trailer_standard trailer_long trailer_double tank_truck" probabilities="0.45 0.3 0.1 0.15"/>

    <!-- 复合子分布 -->
    <vTypeDistribution id="light_vehicles" vTypes="car_types truck_light" probabilities="0.95 0.05"/>
    <vTypeDistribution id="heavy_vehicles" vTypes="truck_types trailer_types" probabilities="0.6 0.4"/>

    <!-- 主要分布定义 -->
    <vTypeDistribution id="urban_traffic" vTypes="light_vehicles truck_medium trailer_standard" probabilities="0.9 0.08 0.02"/>

    <vTypeDistribution id="highway_traffic" vTypes="car_types truck_types trailer_types" probabilities="0.7 0.2 0.1"/>

    <vTypeDistribution id="industrial_traffic" vTypes="car_van car_suv heavy_vehicles" probabilities="0.15 0.15 0.7"/>

    <vTypeDistribution id="night_traffic" vTypes="car_sedan car_sport car_eco truck_light trailer_standard" probabilities="0.4 0.2 0.3 0.07 0.03"/>

    <vTypeDistribution id="holiday_traffic" vTypes="car_sedan car_sport car_suv car_van car_eco truck_light trailer_standard" probabilities="0.25 0.15 0.25 0.15 0.1 0.08 0.02"/>

    <vTypeDistribution id="full_traffic_mix" vTypes="car_types truck_types trailer_types" probabilities="0.7 0.2 0.1"/>
    <!-- Routes -->
    <route id="route_0" edges="96615332 96615332-AddedOffRampEdge 135267593 96615334#2-AddedOnRampEdge 96615334#2"/>
    <!-- Vehicles, persons and containers (sorted by depart) -->
    <vehicle id="v_0" type="car_eco" depart="0.00" route="route_0"/>
    <flow id="f_0" type="highway_traffic" begin="0.00" departLane="free" departSpeed="20" from="96615334#0" to="1264142694#1-AddedOffRampEdge" via="96615334#0-AddedOffRampEdge 96615334#1 96615334#2-AddedOnRampEdge 96615334#2" end="3600.00" vehsPerHour="1800"/>
</routes>
